/*---------------------------------------------------------------------------*\
  =========                 |
  \\      /  F ield         | OpenFOAM: The Open Source CFD Toolbox
   \\    /   O peration     | Website:  https://openfoam.org
    \\  /    A nd           | Version:  12
     \\/     M anipulation  |
\*---------------------------------------------------------------------------*/
Build  : 12-86e126a7bc4d
Exec   : foamRun
Date   : Mar 29 2025
Time   : 09:33:59
Host   : "viraj-Lenovo-ideapad-320-15IKB"
PID    : 10505
I/O    : uncollated
Case   : /home/viraj/OpenFOAM/viraj-12/run/cavityfine
nProcs : 1
sigFpe : Enabling floating point exception trapping (FOAM_SIGFPE).
fileModificationChecking : Monitoring run-time modified files using timeStampMaster (fileModificationSkew 10)
allowSystemOperations : Allowing user-supplied system call operations

// * * * * * * * * * * * * * * * * * * * * * * * * * * * * * * * * * * * * * //
Create time

Create mesh for time = 0.5

Selecting solver incompressibleFluid
Selecting viscosity model constant
Selecting turbulence model type RAS
Selecting RAS turbulence model kEpsilon
RAS
{
    model           kEpsilon;
    turbulence      on;
    printCoeffs     on;
    Cmu             0.09;
    C1              1.44;
    C2              1.92;
    C3              0;
    sigmak          1;
    sigmaEps        1.3;
}

No MRF models present

Courant Number mean: 0.0436988 max: 0.349298

PIMPLE: No convergence criteria found


PIMPLE: Operating solver in transient mode with 1 outer corrector
PIMPLE: Operating solver in PISO mode



Starting time loop

Courant Number mean: 0.0436988 max: 0.349298
Time = 0.5025s

smoothSolver:  Solving for Ux, Initial residual = 0.00241381, Final residual = 2.53462e-06, No Iterations 3
smoothSolver:  Solving for Uy, Initial residual = 0.00311999, Final residual = 3.52488e-06, No Iterations 3
GAMG:  Solving for p, Initial residual = 0.111134, Final residual = 0.0020184, No Iterations 2
time step continuity errors : sum local = 8.7203e-07, global = 8.74743e-20
GAMG:  Solving for p, Initial residual = 0.00453419, Final residual = 6.87681e-07, No Iterations 8
time step continuity errors : sum local = 3.37027e-10, global = 5.89987e-20, cumulative = 5.89987e-20
smoothSolver:  Solving for epsilon, Initial residual = 0.00122407, Final residual = 7.99137e-06, No Iterations 2
smoothSolver:  Solving for k, Initial residual = 0.00398805, Final residual = 4.26774e-06, No Iterations 3
ExecutionTime = 0.319355 s  ClockTime = 1 s

Courant Number mean: 0.0438507 max: 0.349488
Time = 0.505s

smoothSolver:  Solving for Ux, Initial residual = 0.00268475, Final residual = 3.12378e-06, No Iterations 3
smoothSolver:  Solving for Uy, Initial residual = 0.00334326, Final residual = 3.94134e-06, No Iterations 3
GAMG:  Solving for p, Initial residual = 0.0355857, Final residual = 0.000755658, No Iterations 2
time step continuity errors : sum local = 3.44016e-07, global = 1.34045e-19
GAMG:  Solving for p, Initial residual = 0.00210331, Final residual = 5.7483e-07, No Iterations 6
time step continuity errors : sum local = 2.70802e-10, global = -6.7697e-20, cumulative = -8.69832e-21
smoothSolver:  Solving for epsilon, Initial residual = 0.00122043, Final residual = 7.97986e-06, No Iterations 2
smoothSolver:  Solving for k, Initial residual = 0.00396209, Final residual = 4.25261e-06, No Iterations 3
ExecutionTime = 0.32589 s  ClockTime = 1 s

Courant Number mean: 0.0440001 max: 0.349659
Time = 0.5075s

smoothSolver:  Solving for Ux, Initial residual = 0.00255688, Final residual = 2.81085e-06, No Iterations 3
smoothSolver:  Solving for Uy, Initial residual = 0.00324341, Final residual = 3.75787e-06, No Iterations 3
GAMG:  Solving for p, Initial residual = 0.0205745, Final residual = 0.000639058, No Iterations 2
time step continuity errors : sum local = 2.79862e-07, global = 7.59972e-20
GAMG:  Solving for p, Initial residual = 0.00125459, Final residual = 6.62182e-07, No Iterations 7
time step continuity errors : sum local = 3.04753e-10, global = 3.05798e-20, cumulative = 2.18815e-20
smoothSolver:  Solving for epsilon, Initial residual = 0.00121378, Final residual = 7.93559e-06, No Iterations 2
smoothSolver:  Solving for k, Initial residual = 0.00393485, Final residual = 4.23381e-06, No Iterations 3
ExecutionTime = 0.332373 s  ClockTime = 1 s

Courant Number mean: 0.044149 max: 0.349817
Time = 0.51s

smoothSolver:  Solving for Ux, Initial residual = 0.00250396, Final residual = 2.68899e-06, No Iterations 3
smoothSolver:  Solving for Uy, Initial residual = 0.00318073, Final residual = 3.65675e-06, No Iterations 3
GAMG:  Solving for p, Initial residual = 0.015182, Final residual = 0.000587739, No Iterations 2
time step continuity errors : sum local = 2.52113e-07, global = 5.10887e-20
GAMG:  Solving for p, Initial residual = 0.000922216, Final residual = 8.61089e-07, No Iterations 7
time step continuity errors : sum local = 3.90999e-10, global = -4.2437e-20, cumulative = -2.05554e-20
smoothSolver:  Solving for epsilon, Initial residual = 0.00120663, Final residual = 7.94491e-06, No Iterations 2
smoothSolver:  Solving for k, Initial residual = 0.00391061, Final residual = 4.15692e-06, No Iterations 3
ExecutionTime = 0.338203 s  ClockTime = 1 s

Courant Number mean: 0.0442982 max: 0.349966
Time = 0.5125s

smoothSolver:  Solving for Ux, Initial residual = 0.00247794, Final residual = 2.62288e-06, No Iterations 3
smoothSolver:  Solving for Uy, Initial residual = 0.00314024, Final residual = 3.59451e-06, No Iterations 3
GAMG:  Solving for p, Initial residual = 0.0111747, Final residual = 0.000553417, No Iterations 2
time step continuity errors : sum local = 2.34387e-07, global = 8.13325e-20
GAMG:  Solving for p, Initial residual = 0.000761889, Final residual = 8.34147e-07, No Iterations 7
time step continuity errors : sum local = 3.74987e-10, global = 1.5726e-19, cumulative = 1.36705e-19
smoothSolver:  Solving for epsilon, Initial residual = 0.00119894, Final residual = 7.87981e-06, No Iterations 2
smoothSolver:  Solving for k, Initial residual = 0.00388281, Final residual = 4.12748e-06, No Iterations 3
ExecutionTime = 0.344058 s  ClockTime = 1 s

Courant Number mean: 0.0444474 max: 0.350111
Time = 0.515s

smoothSolver:  Solving for Ux, Initial residual = 0.00246722, Final residual = 2.59227e-06, No Iterations 3
smoothSolver:  Solving for Uy, Initial residual = 0.00310706, Final residual = 3.54894e-06, No Iterations 3
GAMG:  Solving for p, Initial residual = 0.00924218, Final residual = 0.000482266, No Iterations 2
time step continuity errors : sum local = 2.02675e-07, global = -3.45245e-20
GAMG:  Solving for p, Initial residual = 0.000608379, Final residual = 5.65632e-07, No Iterations 7
time step continuity errors : sum local = 2.55289e-10, global = -2.36444e-20, cumulative = 1.1306e-19
smoothSolver:  Solving for epsilon, Initial residual = 0.00119173, Final residual = 7.80827e-06, No Iterations 2
smoothSolver:  Solving for k, Initial residual = 0.00385555, Final residual = 4.10194e-06, No Iterations 3
ExecutionTime = 0.349705 s  ClockTime = 1 s

Courant Number mean: 0.044596 max: 0.350252
Time = 0.5175s

smoothSolver:  Solving for Ux, Initial residual = 0.00245937, Final residual = 2.56977e-06, No Iterations 3
smoothSolver:  Solving for Uy, Initial residual = 0.00307747, Final residual = 3.50891e-06, No Iterations 3
GAMG:  Solving for p, Initial residual = 0.0076267, Final residual = 0.00047055, No Iterations 2
time step continuity errors : sum local = 1.96681e-07, global = 1.54373e-20
GAMG:  Solving for p, Initial residual = 0.000549048, Final residual = 6.06359e-07, No Iterations 7
time step continuity errors : sum local = 2.73013e-10, global = 6.32922e-20, cumulative = 1.76352e-19
smoothSolver:  Solving for epsilon, Initial residual = 0.00118461, Final residual = 7.77488e-06, No Iterations 2
smoothSolver:  Solving for k, Initial residual = 0.00383107, Final residual = 4.0711e-06, No Iterations 3
ExecutionTime = 0.355284 s  ClockTime = 1 s

Courant Number mean: 0.0447441 max: 0.35039
Time = 0.52s

smoothSolver:  Solving for Ux, Initial residual = 0.00245179, Final residual = 2.55416e-06, No Iterations 3
smoothSolver:  Solving for Uy, Initial residual = 0.0030535, Final residual = 3.47963e-06, No Iterations 3
GAMG:  Solving for p, Initial residual = 0.00674535, Final residual = 0.000476286, No Iterations 2
time step continuity errors : sum local = 1.98304e-07, global = 8.56132e-21
GAMG:  Solving for p, Initial residual = 0.000505245, Final residual = 6.82764e-07, No Iterations 7
time step continuity errors : sum local = 3.0568e-10, global = 7.95282e-20, cumulative = 2.55881e-19
smoothSolver:  Solving for epsilon, Initial residual = 0.00117738, Final residual = 7.70027e-06, No Iterations 2
smoothSolver:  Solving for k, Initial residual = 0.0038063, Final residual = 4.04779e-06, No Iterations 3
ExecutionTime = 0.361056 s  ClockTime = 1 s

Courant Number mean: 0.0448914 max: 0.350525
Time = 0.5225s

smoothSolver:  Solving for Ux, Initial residual = 0.00244461, Final residual = 2.54509e-06, No Iterations 3
smoothSolver:  Solving for Uy, Initial residual = 0.00303204, Final residual = 3.45662e-06, No Iterations 3
GAMG:  Solving for p, Initial residual = 0.00608658, Final residual = 0.000463309, No Iterations 2
time step continuity errors : sum local = 1.92328e-07, global = 7.25437e-20
GAMG:  Solving for p, Initial residual = 0.000479439, Final residual = 6.48795e-07, No Iterations 7
time step continuity errors : sum local = 2.90353e-10, global = -3.72593e-20, cumulative = 2.18621e-19
smoothSolver:  Solving for epsilon, Initial residual = 0.00117004, Final residual = 7.62012e-06, No Iterations 2
smoothSolver:  Solving for k, Initial residual = 0.00378103, Final residual = 4.01832e-06, No Iterations 3
ExecutionTime = 0.366733 s  ClockTime = 1 s

Courant Number mean: 0.0450387 max: 0.350657
Time = 0.525s

smoothSolver:  Solving for Ux, Initial residual = 0.00243696, Final residual = 2.53773e-06, No Iterations 3
smoothSolver:  Solving for Uy, Initial residual = 0.00301282, Final residual = 3.43281e-06, No Iterations 3
GAMG:  Solving for p, Initial residual = 0.00572638, Final residual = 0.000459825, No Iterations 2
time step continuity errors : sum local = 1.90443e-07, global = -2.83723e-20
GAMG:  Solving for p, Initial residual = 0.000464353, Final residual = 6.55302e-07, No Iterations 7
time step continuity errors : sum local = 2.92688e-10, global = 1.093e-19, cumulative = 3.27922e-19
smoothSolver:  Solving for epsilon, Initial residual = 0.00116274, Final residual = 7.56237e-06, No Iterations 2
smoothSolver:  Solving for k, Initial residual = 0.00375557, Final residual = 4.02503e-06, No Iterations 3
ExecutionTime = 0.373246 s  ClockTime = 1 s

Courant Number mean: 0.0451863 max: 0.350786
Time = 0.5275s

smoothSolver:  Solving for Ux, Initial residual = 0.0024298, Final residual = 2.53094e-06, No Iterations 3
smoothSolver:  Solving for Uy, Initial residual = 0.00299401, Final residual = 3.40914e-06, No Iterations 3
GAMG:  Solving for p, Initial residual = 0.00553309, Final residual = 0.000454923, No Iterations 2
time step continuity errors : sum local = 1.88084e-07, global = -1.0621e-19
GAMG:  Solving for p, Initial residual = 0.000455108, Final residual = 6.60072e-07, No Iterations 7
time step continuity errors : sum local = 2.94309e-10, global = -9.21531e-20, cumulative = 2.35768e-19
smoothSolver:  Solving for epsilon, Initial residual = 0.00115605, Final residual = 7.51156e-06, No Iterations 2
smoothSolver:  Solving for k, Initial residual = 0.00372794, Final residual = 3.99721e-06, No Iterations 3
ExecutionTime = 0.37899 s  ClockTime = 1 s

Courant Number mean: 0.0453341 max: 0.350912
Time = 0.53s

smoothSolver:  Solving for Ux, Initial residual = 0.00242318, Final residual = 2.52395e-06, No Iterations 3
smoothSolver:  Solving for Uy, Initial residual = 0.00297519, Final residual = 3.38565e-06, No Iterations 3
GAMG:  Solving for p, Initial residual = 0.00528174, Final residual = 0.000456311, No Iterations 2
time step continuity errors : sum local = 1.88457e-07, global = -1.67173e-19
GAMG:  Solving for p, Initial residual = 0.000448379, Final residual = 6.36639e-07, No Iterations 7
time step continuity errors : sum local = 2.83848e-10, global = -1.57321e-19, cumulative = 7.84477e-20
smoothSolver:  Solving for epsilon, Initial residual = 0.00114962, Final residual = 7.46082e-06, No Iterations 2
smoothSolver:  Solving for k, Initial residual = 0.00369995, Final residual = 3.96272e-06, No Iterations 3
ExecutionTime = 0.38457 s  ClockTime = 1 s

Courant Number mean: 0.045481 max: 0.351034
Time = 0.5325s

smoothSolver:  Solving for Ux, Initial residual = 0.00241816, Final residual = 2.51852e-06, No Iterations 3
smoothSolver:  Solving for Uy, Initial residual = 0.00295707, Final residual = 3.36591e-06, No Iterations 3
GAMG:  Solving for p, Initial residual = 0.00513788, Final residual = 0.000449736, No Iterations 2
time step continuity errors : sum local = 1.85624e-07, global = -1.25142e-19
GAMG:  Solving for p, Initial residual = 0.000428667, Final residual = 6.6234e-07, No Iterations 7
time step continuity errors : sum local = 2.95049e-10, global = 5.98853e-20, cumulative = 1.38333e-19
smoothSolver:  Solving for epsilon, Initial residual = 0.00114307, Final residual = 7.41208e-06, No Iterations 2
smoothSolver:  Solving for k, Initial residual = 0.0036753, Final residual = 3.93792e-06, No Iterations 3
ExecutionTime = 0.390039 s  ClockTime = 1 s

Courant Number mean: 0.0456271 max: 0.351155
Time = 0.535s

smoothSolver:  Solving for Ux, Initial residual = 0.00241337, Final residual = 2.51309e-06, No Iterations 3
smoothSolver:  Solving for Uy, Initial residual = 0.00293893, Final residual = 3.34769e-06, No Iterations 3
GAMG:  Solving for p, Initial residual = 0.00550162, Final residual = 0.000446607, No Iterations 2
time step continuity errors : sum local = 1.84332e-07, global = 1.40166e-19
GAMG:  Solving for p, Initial residual = 0.000422472, Final residual = 5.96784e-07, No Iterations 7
time step continuity errors : sum local = 2.65957e-10, global = -1.71864e-19, cumulative = -3.35305e-20
smoothSolver:  Solving for epsilon, Initial residual = 0.00113654, Final residual = 7.3517e-06, No Iterations 2
smoothSolver:  Solving for k, Initial residual = 0.00365152, Final residual = 3.89694e-06, No Iterations 3
ExecutionTime = 0.395757 s  ClockTime = 1 s

Courant Number mean: 0.0457726 max: 0.351272
Time = 0.5375s

smoothSolver:  Solving for Ux, Initial residual = 0.00241096, Final residual = 2.50465e-06, No Iterations 3
smoothSolver:  Solving for Uy, Initial residual = 0.00292042, Final residual = 3.32506e-06, No Iterations 3
GAMG:  Solving for p, Initial residual = 0.00559486, Final residual = 0.000458174, No Iterations 2
time step continuity errors : sum local = 1.89101e-07, global = 4.69528e-20
GAMG:  Solving for p, Initial residual = 0.00046777, Final residual = 9.667e-07, No Iterations 7
time step continuity errors : sum local = 4.30803e-10, global = 5.1218e-20, cumulative = 1.76874e-20
smoothSolver:  Solving for epsilon, Initial residual = 0.00112986, Final residual = 7.29314e-06, No Iterations 2
smoothSolver:  Solving for k, Initial residual = 0.00362628, Final residual = 3.8465e-06, No Iterations 3
ExecutionTime = 0.401313 s  ClockTime = 1 s

Courant Number mean: 0.0459178 max: 0.351386
Time = 0.54s

smoothSolver:  Solving for Ux, Initial residual = 0.00240592, Final residual = 2.49775e-06, No Iterations 3
smoothSolver:  Solving for Uy, Initial residual = 0.00290459, Final residual = 3.302e-06, No Iterations 3
GAMG:  Solving for p, Initial residual = 0.00499745, Final residual = 0.000446596, No Iterations 2
time step continuity errors : sum local = 1.84465e-07, global = 8.31937e-20
GAMG:  Solving for p, Initial residual = 0.000449397, Final residual = 7.53241e-07, No Iterations 7
time step continuity errors : sum local = 3.35034e-10, global = -7.42343e-20, cumulative = -5.65468e-20
smoothSolver:  Solving for epsilon, Initial residual = 0.0011231, Final residual = 7.23705e-06, No Iterations 2
smoothSolver:  Solving for k, Initial residual = 0.00359996, Final residual = 3.77779e-06, No Iterations 3
ExecutionTime = 0.40685 s  ClockTime = 1 s

Courant Number mean: 0.0460626 max: 0.351497
Time = 0.5425s

smoothSolver:  Solving for Ux, Initial residual = 0.00240213, Final residual = 2.4898e-06, No Iterations 3
smoothSolver:  Solving for Uy, Initial residual = 0.00288831, Final residual = 3.2707e-06, No Iterations 3
GAMG:  Solving for p, Initial residual = 0.00497611, Final residual = 0.000433737, No Iterations 2
time step continuity errors : sum local = 1.79243e-07, global = 6.93177e-20
GAMG:  Solving for p, Initial residual = 0.000432718, Final residual = 6.08168e-07, No Iterations 7
time step continuity errors : sum local = 2.70136e-10, global = -1.56092e-20, cumulative = -7.2156e-20
smoothSolver:  Solving for epsilon, Initial residual = 0.00111685, Final residual = 7.2388e-06, No Iterations 2
smoothSolver:  Solving for k, Initial residual = 0.00357472, Final residual = 3.74565e-06, No Iterations 3
ExecutionTime = 0.413916 s  ClockTime = 1 s

Courant Number mean: 0.0462082 max: 0.351606
Time = 0.545s

smoothSolver:  Solving for Ux, Initial residual = 0.00240248, Final residual = 2.48316e-06, No Iterations 3
smoothSolver:  Solving for Uy, Initial residual = 0.00287066, Final residual = 3.24824e-06, No Iterations 3
GAMG:  Solving for p, Initial residual = 0.00474349, Final residual = 0.000445744, No Iterations 2
time step continuity errors : sum local = 1.84231e-07, global = 3.20843e-20
GAMG:  Solving for p, Initial residual = 0.000446351, Final residual = 7.71102e-07, No Iterations 7
time step continuity errors : sum local = 3.4351e-10, global = -1.5351e-19, cumulative = -2.25666e-19
smoothSolver:  Solving for epsilon, Initial residual = 0.00111063, Final residual = 7.182e-06, No Iterations 2
smoothSolver:  Solving for k, Initial residual = 0.00355014, Final residual = 3.71808e-06, No Iterations 3
ExecutionTime = 0.419391 s  ClockTime = 1 s

Courant Number mean: 0.046354 max: 0.351711
Time = 0.5475s

smoothSolver:  Solving for Ux, Initial residual = 0.00240296, Final residual = 2.47689e-06, No Iterations 3
smoothSolver:  Solving for Uy, Initial residual = 0.00285433, Final residual = 3.228e-06, No Iterations 3
GAMG:  Solving for p, Initial residual = 0.00514626, Final residual = 0.000458073, No Iterations 2
time step continuity errors : sum local = 1.89367e-07, global = 8.35349e-20
GAMG:  Solving for p, Initial residual = 0.000469433, Final residual = 9.74992e-07, No Iterations 7
time step continuity errors : sum local = 4.35688e-10, global = 1.73407e-20, cumulative = -2.08325e-19
smoothSolver:  Solving for epsilon, Initial residual = 0.00110426, Final residual = 7.12889e-06, No Iterations 2
smoothSolver:  Solving for k, Initial residual = 0.00352596, Final residual = 3.6727e-06, No Iterations 3
ExecutionTime = 0.425014 s  ClockTime = 1 s

Courant Number mean: 0.0464991 max: 0.351814
Time = 0.55s

smoothSolver:  Solving for Ux, Initial residual = 0.00240186, Final residual = 2.47342e-06, No Iterations 3
smoothSolver:  Solving for Uy, Initial residual = 0.00284022, Final residual = 3.20981e-06, No Iterations 3
GAMG:  Solving for p, Initial residual = 0.00450522, Final residual = 0.000441789, No Iterations 2
time step continuity errors : sum local = 1.82739e-07, global = 1.89011e-20
GAMG:  Solving for p, Initial residual = 0.000439206, Final residual = 7.57031e-07, No Iterations 7
time step continuity errors : sum local = 3.37433e-10, global = -1.17172e-20, cumulative = -2.20042e-19
smoothSolver:  Solving for epsilon, Initial residual = 0.00109794, Final residual = 7.07185e-06, No Iterations 2
smoothSolver:  Solving for k, Initial residual = 0.00350227, Final residual = 3.65161e-06, No Iterations 3
ExecutionTime = 0.430762 s  ClockTime = 1 s

Courant Number mean: 0.0466431 max: 0.351914
Time = 0.5525s

smoothSolver:  Solving for Ux, Initial residual = 0.00240132, Final residual = 2.46741e-06, No Iterations 3
smoothSolver:  Solving for Uy, Initial residual = 0.00282457, Final residual = 3.1855e-06, No Iterations 3
GAMG:  Solving for p, Initial residual = 0.00454941, Final residual = 0.000442251, No Iterations 2
time step continuity errors : sum local = 1.83013e-07, global = 7.89544e-20
GAMG:  Solving for p, Initial residual = 0.000442589, Final residual = 7.92354e-07, No Iterations 7
time step continuity errors : sum local = 3.5303e-10, global = 2.59066e-19, cumulative = 3.90239e-20
smoothSolver:  Solving for epsilon, Initial residual = 0.00109154, Final residual = 7.01693e-06, No Iterations 2
smoothSolver:  Solving for k, Initial residual = 0.00347921, Final residual = 3.63167e-06, No Iterations 3
ExecutionTime = 0.436343 s  ClockTime = 1 s

Courant Number mean: 0.0467864 max: 0.352011
Time = 0.555s

smoothSolver:  Solving for Ux, Initial residual = 0.00239956, Final residual = 2.46405e-06, No Iterations 3
smoothSolver:  Solving for Uy, Initial residual = 0.00280875, Final residual = 3.16563e-06, No Iterations 3
GAMG:  Solving for p, Initial residual = 0.00455253, Final residual = 0.000436241, No Iterations 2
time step continuity errors : sum local = 1.80632e-07, global = 8.18909e-20
GAMG:  Solving for p, Initial residual = 0.000434445, Final residual = 7.83282e-07, No Iterations 7
time step continuity errors : sum local = 3.49803e-10, global = -3.27066e-20, cumulative = 6.31727e-21
smoothSolver:  Solving for epsilon, Initial residual = 0.001085, Final residual = 7.0307e-06, No Iterations 2
smoothSolver:  Solving for k, Initial residual = 0.00345738, Final residual = 3.61263e-06, No Iterations 3
ExecutionTime = 0.441999 s  ClockTime = 1 s

Courant Number mean: 0.0469295 max: 0.352106
Time = 0.5575s

smoothSolver:  Solving for Ux, Initial residual = 0.0023976, Final residual = 2.46127e-06, No Iterations 3
smoothSolver:  Solving for Uy, Initial residual = 0.00279296, Final residual = 3.1467e-06, No Iterations 3
GAMG:  Solving for p, Initial residual = 0.00480875, Final residual = 0.000446491, No Iterations 2
time step continuity errors : sum local = 1.84947e-07, global = -1.67887e-19
GAMG:  Solving for p, Initial residual = 0.000439681, Final residual = 8.58069e-07, No Iterations 7
time step continuity errors : sum local = 3.8204e-10, global = -6.97215e-20, cumulative = -6.34042e-20
smoothSolver:  Solving for epsilon, Initial residual = 0.00107834, Final residual = 7.0046e-06, No Iterations 2
smoothSolver:  Solving for k, Initial residual = 0.00343594, Final residual = 3.58009e-06, No Iterations 3
ExecutionTime = 0.447521 s  ClockTime = 1 s

Courant Number mean: 0.0470725 max: 0.352199
Time = 0.56s

smoothSolver:  Solving for Ux, Initial residual = 0.0023943, Final residual = 2.45697e-06, No Iterations 3
smoothSolver:  Solving for Uy, Initial residual = 0.00277759, Final residual = 3.1271e-06, No Iterations 3
GAMG:  Solving for p, Initial residual = 0.00475148, Final residual = 0.000441572, No Iterations 2
time step continuity errors : sum local = 1.83066e-07, global = -7.89544e-20
GAMG:  Solving for p, Initial residual = 0.000434143, Final residual = 8.39216e-07, No Iterations 7
time step continuity errors : sum local = 3.75529e-10, global = 9.97499e-20, cumulative = 3.63457e-20
smoothSolver:  Solving for epsilon, Initial residual = 0.00107163, Final residual = 6.9443e-06, No Iterations 2
smoothSolver:  Solving for k, Initial residual = 0.0034111, Final residual = 3.57474e-06, No Iterations 3
ExecutionTime = 0.452981 s  ClockTime = 1 s

Courant Number mean: 0.0472164 max: 0.35229
Time = 0.5625s

smoothSolver:  Solving for Ux, Initial residual = 0.00239184, Final residual = 2.45488e-06, No Iterations 3
smoothSolver:  Solving for Uy, Initial residual = 0.00276334, Final residual = 3.10983e-06, No Iterations 3
GAMG:  Solving for p, Initial residual = 0.00464886, Final residual = 0.000443598, No Iterations 2
time step continuity errors : sum local = 1.83959e-07, global = 1.52408e-20
GAMG:  Solving for p, Initial residual = 0.000432709, Final residual = 8.22491e-07, No Iterations 7
time step continuity errors : sum local = 3.67998e-10, global = -5.07004e-20, cumulative = -1.43547e-20
smoothSolver:  Solving for epsilon, Initial residual = 0.00106509, Final residual = 6.88639e-06, No Iterations 2
smoothSolver:  Solving for k, Initial residual = 0.0033903, Final residual = 3.54467e-06, No Iterations 3
ExecutionTime = 0.458648 s  ClockTime = 1 s

Courant Number mean: 0.0473604 max: 0.352378
Time = 0.565s

smoothSolver:  Solving for Ux, Initial residual = 0.00238764, Final residual = 2.45269e-06, No Iterations 3
smoothSolver:  Solving for Uy, Initial residual = 0.00274984, Final residual = 3.09273e-06, No Iterations 3
GAMG:  Solving for p, Initial residual = 0.0043934, Final residual = 0.00043841, No Iterations 2
time step continuity errors : sum local = 1.81866e-07, global = -8.27284e-20
GAMG:  Solving for p, Initial residual = 0.000431899, Final residual = 7.91739e-07, No Iterations 7
time step continuity errors : sum local = 3.53942e-10, global = 2.47728e-20, cumulative = 1.04181e-20
smoothSolver:  Solving for epsilon, Initial residual = 0.00105878, Final residual = 6.83202e-06, No Iterations 2
smoothSolver:  Solving for k, Initial residual = 0.00336807, Final residual = 3.52955e-06, No Iterations 3
ExecutionTime = 0.46408 s  ClockTime = 1 s

Courant Number mean: 0.0475038 max: 0.352464
Time = 0.5675s

smoothSolver:  Solving for Ux, Initial residual = 0.00238422, Final residual = 2.45099e-06, No Iterations 3
smoothSolver:  Solving for Uy, Initial residual = 0.00273484, Final residual = 3.07403e-06, No Iterations 3
GAMG:  Solving for p, Initial residual = 0.00425287, Final residual = 0.000190855, No Iterations 3
time step continuity errors : sum local = 7.97981e-08, global = -7.05171e-21
GAMG:  Solving for p, Initial residual = 0.000364282, Final residual = 6.18857e-07, No Iterations 6
time step continuity errors : sum local = 2.7972e-10, global = 4.19497e-20, cumulative = 5.23678e-20
smoothSolver:  Solving for epsilon, Initial residual = 0.00105241, Final residual = 6.77871e-06, No Iterations 2
smoothSolver:  Solving for k, Initial residual = 0.00334401, Final residual = 3.47774e-06, No Iterations 3
ExecutionTime = 0.469549 s  ClockTime = 1 s

Courant Number mean: 0.0476468 max: 0.352548
Time = 0.57s

smoothSolver:  Solving for Ux, Initial residual = 0.00237958, Final residual = 2.44827e-06, No Iterations 3
smoothSolver:  Solving for Uy, Initial residual = 0.00272054, Final residual = 3.05492e-06, No Iterations 3
GAMG:  Solving for p, Initial residual = 0.00427322, Final residual = 0.000193329, No Iterations 3
time step continuity errors : sum local = 8.08584e-08, global = 2.95252e-20
GAMG:  Solving for p, Initial residual = 0.00036595, Final residual = 6.26432e-07, No Iterations 6
time step continuity errors : sum local = 2.83212e-10, global = -1.13497e-19, cumulative = -6.11291e-20
smoothSolver:  Solving for epsilon, Initial residual = 0.00104594, Final residual = 6.7264e-06, No Iterations 2
smoothSolver:  Solving for k, Initial residual = 0.00332053, Final residual = 3.44905e-06, No Iterations 3
ExecutionTime = 0.475152 s  ClockTime = 1 s

Courant Number mean: 0.047789 max: 0.35263
Time = 0.5725s

smoothSolver:  Solving for Ux, Initial residual = 0.00237552, Final residual = 2.4451e-06, No Iterations 3
smoothSolver:  Solving for Uy, Initial residual = 0.00270618, Final residual = 3.03632e-06, No Iterations 3
GAMG:  Solving for p, Initial residual = 0.00456468, Final residual = 0.000443191, No Iterations 2
time step continuity errors : sum local = 1.83921e-07, global = 3.77298e-20
GAMG:  Solving for p, Initial residual = 0.000444789, Final residual = 8.10178e-07, No Iterations 7
time step continuity errors : sum local = 3.62265e-10, global = 4.30444e-20, cumulative = -1.80847e-20
smoothSolver:  Solving for epsilon, Initial residual = 0.00103948, Final residual = 6.67566e-06, No Iterations 2
smoothSolver:  Solving for k, Initial residual = 0.00329747, Final residual = 3.42742e-06, No Iterations 3
ExecutionTime = 0.480716 s  ClockTime = 1 s

Courant Number mean: 0.0479305 max: 0.35271
Time = 0.575s

smoothSolver:  Solving for Ux, Initial residual = 0.00237314, Final residual = 2.44229e-06, No Iterations 3
smoothSolver:  Solving for Uy, Initial residual = 0.00269139, Final residual = 3.01627e-06, No Iterations 3
GAMG:  Solving for p, Initial residual = 0.00428726, Final residual = 0.000190437, No Iterations 3
time step continuity errors : sum local = 7.96487e-08, global = 5.49455e-20
GAMG:  Solving for p, Initial residual = 0.000365932, Final residual = 6.73715e-07, No Iterations 6
time step continuity errors : sum local = 3.0424e-10, global = 6.80705e-20, cumulative = 4.99858e-20
smoothSolver:  Solving for epsilon, Initial residual = 0.00103305, Final residual = 6.61954e-06, No Iterations 2
smoothSolver:  Solving for k, Initial residual = 0.00327448, Final residual = 3.39724e-06, No Iterations 3
ExecutionTime = 0.486374 s  ClockTime = 1 s

Courant Number mean: 0.0480715 max: 0.352789
Time = 0.5775s

smoothSolver:  Solving for Ux, Initial residual = 0.0023714, Final residual = 2.43621e-06, No Iterations 3
smoothSolver:  Solving for Uy, Initial residual = 0.00267735, Final residual = 2.99227e-06, No Iterations 3
GAMG:  Solving for p, Initial residual = 0.00440556, Final residual = 0.000440169, No Iterations 2
time step continuity errors : sum local = 1.82868e-07, global = -5.32601e-20
GAMG:  Solving for p, Initial residual = 0.000423393, Final residual = 8.28401e-07, No Iterations 7
time step continuity errors : sum local = 3.70857e-10, global = -1.04147e-20, cumulative = 3.95711e-20
smoothSolver:  Solving for epsilon, Initial residual = 0.00102672, Final residual = 6.55543e-06, No Iterations 2
smoothSolver:  Solving for k, Initial residual = 0.0032516, Final residual = 3.37533e-06, No Iterations 3
ExecutionTime = 0.492623 s  ClockTime = 1 s

Courant Number mean: 0.048213 max: 0.352866
Time = 0.58s

smoothSolver:  Solving for Ux, Initial residual = 0.00237139, Final residual = 2.4298e-06, No Iterations 3
smoothSolver:  Solving for Uy, Initial residual = 0.00266367, Final residual = 2.96813e-06, No Iterations 3
GAMG:  Solving for p, Initial residual = 0.00444483, Final residual = 0.000433542, No Iterations 2
time step continuity errors : sum local = 1.8024e-07, global = -1.73641e-19
GAMG:  Solving for p, Initial residual = 0.000416487, Final residual = 9.04486e-07, No Iterations 7
time step continuity errors : sum local = 4.04873e-10, global = -1.50258e-19, cumulative = -1.10687e-19
smoothSolver:  Solving for epsilon, Initial residual = 0.00102053, Final residual = 6.50106e-06, No Iterations 2
smoothSolver:  Solving for k, Initial residual = 0.00322956, Final residual = 3.34803e-06, No Iterations 3
ExecutionTime = 0.498927 s  ClockTime = 1 s

Courant Number mean: 0.0483554 max: 0.352941
Time = 0.5825s

smoothSolver:  Solving for Ux, Initial residual = 0.00237178, Final residual = 2.42456e-06, No Iterations 3
smoothSolver:  Solving for Uy, Initial residual = 0.00265022, Final residual = 2.95028e-06, No Iterations 3
GAMG:  Solving for p, Initial residual = 0.0052797, Final residual = 0.000448502, No Iterations 2
time step continuity errors : sum local = 1.86539e-07, global = 1.10801e-19
GAMG:  Solving for p, Initial residual = 0.000445482, Final residual = 8.66775e-07, No Iterations 7
time step continuity errors : sum local = 3.79461e-10, global = 2.86928e-21, cumulative = -1.07818e-19
smoothSolver:  Solving for epsilon, Initial residual = 0.00101429, Final residual = 6.4625e-06, No Iterations 2
smoothSolver:  Solving for k, Initial residual = 0.00321072, Final residual = 3.32699e-06, No Iterations 3
ExecutionTime = 0.504478 s  ClockTime = 1 s

Courant Number mean: 0.0484988 max: 0.353014
Time = 0.585s

smoothSolver:  Solving for Ux, Initial residual = 0.00236902, Final residual = 2.41549e-06, No Iterations 3
smoothSolver:  Solving for Uy, Initial residual = 0.00263328, Final residual = 2.93054e-06, No Iterations 3
GAMG:  Solving for p, Initial residual = 0.00515238, Final residual = 0.000444885, No Iterations 2
time step continuity errors : sum local = 1.85185e-07, global = -4.16279e-20
GAMG:  Solving for p, Initial residual = 0.000450949, Final residual = 4.82201e-07, No Iterations 8
time step continuity errors : sum local = 2.14844e-10, global = 4.59467e-20, cumulative = -6.1871e-20
smoothSolver:  Solving for epsilon, Initial residual = 0.00100802, Final residual = 6.41025e-06, No Iterations 2
smoothSolver:  Solving for k, Initial residual = 0.00319193, Final residual = 3.29153e-06, No Iterations 3
ExecutionTime = 0.510541 s  ClockTime = 1 s

Courant Number mean: 0.0486443 max: 0.353085
Time = 0.5875s

smoothSolver:  Solving for Ux, Initial residual = 0.0023684, Final residual = 2.4112e-06, No Iterations 3
smoothSolver:  Solving for Uy, Initial residual = 0.00262061, Final residual = 2.90883e-06, No Iterations 3
GAMG:  Solving for p, Initial residual = 0.00485762, Final residual = 0.000425609, No Iterations 2
time step continuity errors : sum local = 1.77394e-07, global = 3.18051e-20
GAMG:  Solving for p, Initial residual = 0.00045416, Final residual = 4.99716e-07, No Iterations 8
time step continuity errors : sum local = 2.22474e-10, global = 4.70633e-20, cumulative = -1.48077e-20
smoothSolver:  Solving for epsilon, Initial residual = 0.00100207, Final residual = 6.36446e-06, No Iterations 2
smoothSolver:  Solving for k, Initial residual = 0.00317032, Final residual = 3.26202e-06, No Iterations 3
ExecutionTime = 0.516568 s  ClockTime = 1 s

Courant Number mean: 0.0487907 max: 0.353155
Time = 0.59s

smoothSolver:  Solving for Ux, Initial residual = 0.00236797, Final residual = 2.41001e-06, No Iterations 3
smoothSolver:  Solving for Uy, Initial residual = 0.00260879, Final residual = 2.89215e-06, No Iterations 3
GAMG:  Solving for p, Initial residual = 0.00434373, Final residual = 0.00019015, No Iterations 3
time step continuity errors : sum local = 7.97926e-08, global = 1.50568e-19
GAMG:  Solving for p, Initial residual = 0.000368687, Final residual = 7.52465e-07, No Iterations 6
time step continuity errors : sum local = 3.3925e-10, global = -1.51561e-20, cumulative = -2.99638e-20
smoothSolver:  Solving for epsilon, Initial residual = 0.000996106, Final residual = 6.31855e-06, No Iterations 2
smoothSolver:  Solving for k, Initial residual = 0.00315023, Final residual = 3.23578e-06, No Iterations 3
ExecutionTime = 0.522432 s  ClockTime = 1 s

Courant Number mean: 0.0489362 max: 0.353223
Time = 0.5925s

smoothSolver:  Solving for Ux, Initial residual = 0.00236627, Final residual = 2.40745e-06, No Iterations 3
smoothSolver:  Solving for Uy, Initial residual = 0.002594, Final residual = 2.87338e-06, No Iterations 3
GAMG:  Solving for p, Initial residual = 0.00424643, Final residual = 0.000191037, No Iterations 3
time step continuity errors : sum local = 8.0276e-08, global = 1.5125e-19
GAMG:  Solving for p, Initial residual = 0.000357678, Final residual = 8.15844e-07, No Iterations 6
time step continuity errors : sum local = 3.66452e-10, global = -6.27087e-20, cumulative = -9.26725e-20
smoothSolver:  Solving for epsilon, Initial residual = 0.000990409, Final residual = 6.275e-06, No Iterations 2
smoothSolver:  Solving for k, Initial residual = 0.00313076, Final residual = 3.22171e-06, No Iterations 3
ExecutionTime = 0.528116 s  ClockTime = 1 s

Courant Number mean: 0.0490807 max: 0.353289
Time = 0.595s

smoothSolver:  Solving for Ux, Initial residual = 0.00236482, Final residual = 2.40451e-06, No Iterations 3
smoothSolver:  Solving for Uy, Initial residual = 0.00257992, Final residual = 2.85716e-06, No Iterations 3
GAMG:  Solving for p, Initial residual = 0.00461477, Final residual = 0.000435972, No Iterations 2
time step continuity errors : sum local = 1.8202e-07, global = 3.22704e-20
GAMG:  Solving for p, Initial residual = 0.000422278, Final residual = 9.79207e-07, No Iterations 7
time step continuity errors : sum local = 4.38373e-10, global = -5.49429e-21, cumulative = -9.81668e-20
smoothSolver:  Solving for epsilon, Initial residual = 0.000984813, Final residual = 6.25977e-06, No Iterations 2
smoothSolver:  Solving for k, Initial residual = 0.00311073, Final residual = 3.23832e-06, No Iterations 3
ExecutionTime = 0.533596 s  ClockTime = 1 s

Courant Number mean: 0.0492254 max: 0.353355
Time = 0.5975s

smoothSolver:  Solving for Ux, Initial residual = 0.00236292, Final residual = 2.40113e-06, No Iterations 3
smoothSolver:  Solving for Uy, Initial residual = 0.00256596, Final residual = 2.84044e-06, No Iterations 3
GAMG:  Solving for p, Initial residual = 0.00474597, Final residual = 0.000434419, No Iterations 2
time step continuity errors : sum local = 1.81386e-07, global = 5.57313e-21
GAMG:  Solving for p, Initial residual = 0.000419699, Final residual = 9.50653e-07, No Iterations 7
time step continuity errors : sum local = 4.25681e-10, global = 2.05929e-20, cumulative = -7.75739e-20
smoothSolver:  Solving for epsilon, Initial residual = 0.000979204, Final residual = 6.20718e-06, No Iterations 2
smoothSolver:  Solving for k, Initial residual = 0.00309108, Final residual = 3.18653e-06, No Iterations 3
ExecutionTime = 0.539187 s  ClockTime = 1 s

Courant Number mean: 0.0493711 max: 0.353419
Time = 0.6s

smoothSolver:  Solving for Ux, Initial residual = 0.00235898, Final residual = 2.39873e-06, No Iterations 3
smoothSolver:  Solving for Uy, Initial residual = 0.00255417, Final residual = 2.8251e-06, No Iterations 3
GAMG:  Solving for p, Initial residual = 0.00463219, Final residual = 0.0004275, No Iterations 2
time step continuity errors : sum local = 1.78531e-07, global = 6.36826e-20
GAMG:  Solving for p, Initial residual = 0.000416677, Final residual = 8.53009e-07, No Iterations 7
time step continuity errors : sum local = 3.82203e-10, global = 4.74776e-20, cumulative = -3.00963e-20
smoothSolver:  Solving for epsilon, Initial residual = 0.000973535, Final residual = 6.15607e-06, No Iterations 2
smoothSolver:  Solving for k, Initial residual = 0.0030696, Final residual = 3.15894e-06, No Iterations 3
ExecutionTime = 0.552258 s  ClockTime = 1 s

Courant Number mean: 0.0495165 max: 0.353481
Time = 0.6025s

smoothSolver:  Solving for Ux, Initial residual = 0.0023558, Final residual = 2.39588e-06, No Iterations 3
smoothSolver:  Solving for Uy, Initial residual = 0.00254046, Final residual = 2.80802e-06, No Iterations 3
GAMG:  Solving for p, Initial residual = 0.00438577, Final residual = 0.00042527, No Iterations 2
time step continuity errors : sum local = 1.77649e-07, global = -6.15009e-20
GAMG:  Solving for p, Initial residual = 0.00041078, Final residual = 9.45788e-07, No Iterations 7
time step continuity errors : sum local = 4.23102e-10, global = -1.08627e-19, cumulative = -1.38723e-19
smoothSolver:  Solving for epsilon, Initial residual = 0.000968756, Final residual = 6.14941e-06, No Iterations 2
smoothSolver:  Solving for k, Initial residual = 0.00304775, Final residual = 3.12643e-06, No Iterations 3
ExecutionTime = 0.558362 s  ClockTime = 1 s

Courant Number mean: 0.0496618 max: 0.353543
Time = 0.605s

smoothSolver:  Solving for Ux, Initial residual = 0.00235142, Final residual = 2.39227e-06, No Iterations 3
smoothSolver:  Solving for Uy, Initial residual = 0.0025266, Final residual = 2.79006e-06, No Iterations 3
GAMG:  Solving for p, Initial residual = 0.00434814, Final residual = 0.000189943, No Iterations 3
time step continuity errors : sum local = 7.99273e-08, global = -9.3642e-20
GAMG:  Solving for p, Initial residual = 0.000358657, Final residual = 9.57516e-07, No Iterations 6
time step continuity errors : sum local = 4.2775e-10, global = -1.31765e-19, cumulative = -2.70488e-19
smoothSolver:  Solving for epsilon, Initial residual = 0.00096328, Final residual = 6.0967e-06, No Iterations 2
smoothSolver:  Solving for k, Initial residual = 0.00302612, Final residual = 3.08933e-06, No Iterations 3
ExecutionTime = 0.564458 s  ClockTime = 1 s

Courant Number mean: 0.0498065 max: 0.353603
Time = 0.6075s

smoothSolver:  Solving for Ux, Initial residual = 0.0023471, Final residual = 2.38961e-06, No Iterations 3
smoothSolver:  Solving for Uy, Initial residual = 0.00251445, Final residual = 2.77366e-06, No Iterations 3
GAMG:  Solving for p, Initial residual = 0.00439878, Final residual = 0.000437535, No Iterations 2
time step continuity errors : sum local = 1.82853e-07, global = -3.14329e-21
GAMG:  Solving for p, Initial residual = 0.000422492, Final residual = 4.6315e-07, No Iterations 8
time step continuity errors : sum local = 2.06862e-10, global = 2.77622e-20, cumulative = -2.42726e-19
smoothSolver:  Solving for epsilon, Initial residual = 0.000957769, Final residual = 6.04583e-06, No Iterations 2
smoothSolver:  Solving for k, Initial residual = 0.00300619, Final residual = 3.07527e-06, No Iterations 3
ExecutionTime = 0.57025 s  ClockTime = 1 s

Courant Number mean: 0.0499507 max: 0.353662
Time = 0.61s

smoothSolver:  Solving for Ux, Initial residual = 0.00234213, Final residual = 2.38859e-06, No Iterations 3
smoothSolver:  Solving for Uy, Initial residual = 0.0025026, Final residual = 2.7592e-06, No Iterations 3
GAMG:  Solving for p, Initial residual = 0.00447405, Final residual = 0.000415267, No Iterations 2
time step continuity errors : sum local = 1.73544e-07, global = -3.09314e-20
GAMG:  Solving for p, Initial residual = 0.000389961, Final residual = 9.08859e-07, No Iterations 7
time step continuity errors : sum local = 4.07506e-10, global = 4.45592e-20, cumulative = -1.98166e-19
smoothSolver:  Solving for epsilon, Initial residual = 0.000952571, Final residual = 5.99492e-06, No Iterations 2
smoothSolver:  Solving for k, Initial residual = 0.00298788, Final residual = 3.04698e-06, No Iterations 3
ExecutionTime = 0.576765 s  ClockTime = 1 s

Courant Number mean: 0.0500939 max: 0.35372
Time = 0.6125s

smoothSolver:  Solving for Ux, Initial residual = 0.00234091, Final residual = 2.38567e-06, No Iterations 3
smoothSolver:  Solving for Uy, Initial residual = 0.00248849, Final residual = 2.74035e-06, No Iterations 3
GAMG:  Solving for p, Initial residual = 0.00443415, Final residual = 0.000416285, No Iterations 2
time step continuity errors : sum local = 1.74246e-07, global = -1.43991e-19
GAMG:  Solving for p, Initial residual = 0.000398396, Final residual = 9.0215e-07, No Iterations 7
time step continuity errors : sum local = 4.03816e-10, global = 1.01562e-19, cumulative = -9.66042e-20
smoothSolver:  Solving for epsilon, Initial residual = 0.000947374, Final residual = 5.94638e-06, No Iterations 2
smoothSolver:  Solving for k, Initial residual = 0.00296793, Final residual = 3.03252e-06, No Iterations 3
ExecutionTime = 0.583133 s  ClockTime = 1 s

Courant Number mean: 0.0502369 max: 0.353778
Time = 0.615s

smoothSolver:  Solving for Ux, Initial residual = 0.00234093, Final residual = 2.38049e-06, No Iterations 3
smoothSolver:  Solving for Uy, Initial residual = 0.00247519, Final residual = 2.72049e-06, No Iterations 3
GAMG:  Solving for p, Initial residual = 0.0043417, Final residual = 0.00042918, No Iterations 2
time step continuity errors : sum local = 1.79755e-07, global = -1.84404e-19
GAMG:  Solving for p, Initial residual = 0.00040549, Final residual = 4.76127e-07, No Iterations 8
time step continuity errors : sum local = 2.13467e-10, global = 3.3992e-20, cumulative = -6.26122e-20
smoothSolver:  Solving for epsilon, Initial residual = 0.000942101, Final residual = 5.89901e-06, No Iterations 2
smoothSolver:  Solving for k, Initial residual = 0.002947, Final residual = 2.98654e-06, No Iterations 3
ExecutionTime = 0.588778 s  ClockTime = 1 s

Courant Number mean: 0.0503797 max: 0.353834
Time = 0.6175s

smoothSolver:  Solving for Ux, Initial residual = 0.00233852, Final residual = 2.37418e-06, No Iterations 3
smoothSolver:  Solving for Uy, Initial residual = 0.00246358, Final residual = 2.69978e-06, No Iterations 3
GAMG:  Solving for p, Initial residual = 0.00397801, Final residual = 0.00018222, No Iterations 3
time step continuity errors : sum local = 7.68459e-08, global = -7.07239e-20
GAMG:  Solving for p, Initial residual = 0.000344428, Final residual = 8.97904e-07, No Iterations 6
time step continuity errors : sum local = 4.02697e-10, global = 9.94426e-20, cumulative = 3.68304e-20
smoothSolver:  Solving for epsilon, Initial residual = 0.000936826, Final residual = 5.85255e-06, No Iterations 2
smoothSolver:  Solving for k, Initial residual = 0.00292646, Final residual = 2.96809e-06, No Iterations 3
ExecutionTime = 0.595523 s  ClockTime = 1 s

Courant Number mean: 0.0505223 max: 0.353889
Time = 0.62s

smoothSolver:  Solving for Ux, Initial residual = 0.0023369, Final residual = 2.36916e-06, No Iterations 3
smoothSolver:  Solving for Uy, Initial residual = 0.00245069, Final residual = 2.68301e-06, No Iterations 3
GAMG:  Solving for p, Initial residual = 0.0039939, Final residual = 0.000186507, No Iterations 3
time step continuity errors : sum local = 7.87646e-08, global = -1.07068e-20
GAMG:  Solving for p, Initial residual = 0.000351512, Final residual = 9.41745e-07, No Iterations 6
time step continuity errors : sum local = 4.22305e-10, global = -1.08131e-19, cumulative = -7.13002e-20
smoothSolver:  Solving for epsilon, Initial residual = 0.000931518, Final residual = 5.80074e-06, No Iterations 2
smoothSolver:  Solving for k, Initial residual = 0.00290758, Final residual = 2.93951e-06, No Iterations 3
ExecutionTime = 0.602418 s  ClockTime = 1 s

Courant Number mean: 0.0506642 max: 0.353944
Time = 0.6225s

smoothSolver:  Solving for Ux, Initial residual = 0.00233531, Final residual = 2.36546e-06, No Iterations 3
smoothSolver:  Solving for Uy, Initial residual = 0.00243825, Final residual = 2.66765e-06, No Iterations 3
GAMG:  Solving for p, Initial residual = 0.00403767, Final residual = 0.000186304, No Iterations 3
time step continuity errors : sum local = 7.87183e-08, global = 7.27118e-20
GAMG:  Solving for p, Initial residual = 0.000350315, Final residual = 9.48355e-07, No Iterations 6
time step continuity errors : sum local = 4.25394e-10, global = -4.60946e-20, cumulative = -1.17395e-19
smoothSolver:  Solving for epsilon, Initial residual = 0.000926233, Final residual = 5.74648e-06, No Iterations 2
smoothSolver:  Solving for k, Initial residual = 0.00288948, Final residual = 2.91746e-06, No Iterations 3
ExecutionTime = 0.608138 s  ClockTime = 1 s

Courant Number mean: 0.0508053 max: 0.353997
Time = 0.625s

smoothSolver:  Solving for Ux, Initial residual = 0.0023334, Final residual = 2.3589e-06, No Iterations 3
smoothSolver:  Solving for Uy, Initial residual = 0.00242572, Final residual = 2.64537e-06, No Iterations 3
GAMG:  Solving for p, Initial residual = 0.00403781, Final residual = 0.000184904, No Iterations 3
time step continuity errors : sum local = 7.81863e-08, global = -3.41522e-20
GAMG:  Solving for p, Initial residual = 0.000344644, Final residual = 9.129e-07, No Iterations 6
time step continuity errors : sum local = 4.10272e-10, global = -9.36989e-20, cumulative = -2.11094e-19
smoothSolver:  Solving for epsilon, Initial residual = 0.000921224, Final residual = 5.70197e-06, No Iterations 2
smoothSolver:  Solving for k, Initial residual = 0.00287142, Final residual = 2.89433e-06, No Iterations 3
ExecutionTime = 0.614062 s  ClockTime = 1 s

Courant Number mean: 0.0509455 max: 0.35405
Time = 0.6275s

smoothSolver:  Solving for Ux, Initial residual = 0.00233151, Final residual = 2.35261e-06, No Iterations 3
smoothSolver:  Solving for Uy, Initial residual = 0.00241308, Final residual = 2.62899e-06, No Iterations 3
GAMG:  Solving for p, Initial residual = 0.00411185, Final residual = 0.000185233, No Iterations 3
time step continuity errors : sum local = 7.83974e-08, global = 1.10519e-19
GAMG:  Solving for p, Initial residual = 0.000343602, Final residual = 9.2173e-07, No Iterations 6
time step continuity errors : sum local = 4.14228e-10, global = 8.11568e-20, cumulative = -1.29937e-19
smoothSolver:  Solving for epsilon, Initial residual = 0.00091662, Final residual = 5.66038e-06, No Iterations 2
smoothSolver:  Solving for k, Initial residual = 0.00285367, Final residual = 2.8857e-06, No Iterations 3
ExecutionTime = 0.619956 s  ClockTime = 1 s

Courant Number mean: 0.0510848 max: 0.354102
Time = 0.63s

smoothSolver:  Solving for Ux, Initial residual = 0.00233105, Final residual = 2.34755e-06, No Iterations 3
smoothSolver:  Solving for Uy, Initial residual = 0.00240077, Final residual = 2.61291e-06, No Iterations 3
GAMG:  Solving for p, Initial residual = 0.00398708, Final residual = 0.000184929, No Iterations 3
time step continuity errors : sum local = 7.83261e-08, global = -6.23849e-20
GAMG:  Solving for p, Initial residual = 0.000342889, Final residual = 9.45727e-07, No Iterations 6
time step continuity errors : sum local = 4.2529e-10, global = -3.24487e-20, cumulative = -1.62386e-19
smoothSolver:  Solving for epsilon, Initial residual = 0.000912013, Final residual = 5.61863e-06, No Iterations 2
smoothSolver:  Solving for k, Initial residual = 0.0028353, Final residual = 2.86751e-06, No Iterations 3
ExecutionTime = 0.627674 s  ClockTime = 1 s

Courant Number mean: 0.0512243 max: 0.354154
Time = 0.6325s

smoothSolver:  Solving for Ux, Initial residual = 0.00232987, Final residual = 2.34397e-06, No Iterations 3
smoothSolver:  Solving for Uy, Initial residual = 0.00238851, Final residual = 2.59826e-06, No Iterations 3
GAMG:  Solving for p, Initial residual = 0.00472006, Final residual = 0.000433364, No Iterations 2
time step continuity errors : sum local = 1.82497e-07, global = 1.85185e-20
GAMG:  Solving for p, Initial residual = 0.000423537, Final residual = 4.94251e-07, No Iterations 8
time step continuity errors : sum local = 2.22709e-10, global = 6.88576e-20, cumulative = -9.35281e-20
smoothSolver:  Solving for epsilon, Initial residual = 0.000907349, Final residual = 5.63963e-06, No Iterations 2
smoothSolver:  Solving for k, Initial residual = 0.00281703, Final residual = 2.8669e-06, No Iterations 3
ExecutionTime = 0.634147 s  ClockTime = 1 s

Courant Number mean: 0.0513635 max: 0.354204
Time = 0.635s

smoothSolver:  Solving for Ux, Initial residual = 0.00232688, Final residual = 2.34157e-06, No Iterations 3
smoothSolver:  Solving for Uy, Initial residual = 0.0023781, Final residual = 2.58555e-06, No Iterations 3
GAMG:  Solving for p, Initial residual = 0.00449999, Final residual = 0.000418816, No Iterations 2
time step continuity errors : sum local = 1.76466e-07, global = 1.85185e-20
GAMG:  Solving for p, Initial residual = 0.000405421, Final residual = 4.55591e-07, No Iterations 8
time step continuity errors : sum local = 2.05435e-10, global = -3.87534e-20, cumulative = -1.32282e-19
smoothSolver:  Solving for epsilon, Initial residual = 0.000902661, Final residual = 5.60411e-06, No Iterations 2
smoothSolver:  Solving for k, Initial residual = 0.0027987, Final residual = 2.84918e-06, No Iterations 3
ExecutionTime = 0.640498 s  ClockTime = 1 s

Courant Number mean: 0.0515033 max: 0.354254
Time = 0.6375s

smoothSolver:  Solving for Ux, Initial residual = 0.00232456, Final residual = 2.33731e-06, No Iterations 3
smoothSolver:  Solving for Uy, Initial residual = 0.00236571, Final residual = 2.5704e-06, No Iterations 3
GAMG:  Solving for p, Initial residual = 0.00427837, Final residual = 0.000417391, No Iterations 2
time step continuity errors : sum local = 1.75939e-07, global = 1.58198e-21
GAMG:  Solving for p, Initial residual = 0.000397161, Final residual = 9.38789e-07, No Iterations 7
time step continuity errors : sum local = 4.23155e-10, global = 6.12062e-20, cumulative = -7.10753e-20
smoothSolver:  Solving for epsilon, Initial residual = 0.000897998, Final residual = 5.55762e-06, No Iterations 2
smoothSolver:  Solving for k, Initial residual = 0.00278078, Final residual = 2.81831e-06, No Iterations 3
ExecutionTime = 0.647006 s  ClockTime = 1 s

Courant Number mean: 0.0516435 max: 0.354304
Time = 0.64s

smoothSolver:  Solving for Ux, Initial residual = 0.00232112, Final residual = 2.33347e-06, No Iterations 3
smoothSolver:  Solving for Uy, Initial residual = 0.00235443, Final residual = 2.55603e-06, No Iterations 3
GAMG:  Solving for p, Initial residual = 0.00459145, Final residual = 0.000425655, No Iterations 2
time step continuity errors : sum local = 1.79485e-07, global = 3.50518e-20
GAMG:  Solving for p, Initial residual = 0.000415494, Final residual = 9.40227e-07, No Iterations 7
time step continuity errors : sum local = 4.2429e-10, global = -3.85828e-20, cumulative = -1.09658e-19
smoothSolver:  Solving for epsilon, Initial residual = 0.00089335, Final residual = 5.51264e-06, No Iterations 2
smoothSolver:  Solving for k, Initial residual = 0.00276316, Final residual = 2.80199e-06, No Iterations 3
ExecutionTime = 0.657522 s  ClockTime = 1 s

Courant Number mean: 0.0517829 max: 0.354352
Time = 0.6425s

smoothSolver:  Solving for Ux, Initial residual = 0.00231626, Final residual = 2.32887e-06, No Iterations 3
smoothSolver:  Solving for Uy, Initial residual = 0.00234425, Final residual = 2.54174e-06, No Iterations 3
GAMG:  Solving for p, Initial residual = 0.00408815, Final residual = 0.000180773, No Iterations 3
time step continuity errors : sum local = 7.67709e-08, global = -6.78857e-20
GAMG:  Solving for p, Initial residual = 0.000339861, Final residual = 9.34176e-07, No Iterations 6
time step continuity errors : sum local = 4.21175e-10, global = -4.40474e-21, cumulative = -1.14063e-19
smoothSolver:  Solving for epsilon, Initial residual = 0.00088867, Final residual = 5.46837e-06, No Iterations 2
smoothSolver:  Solving for k, Initial residual = 0.00274588, Final residual = 2.78753e-06, No Iterations 3
ExecutionTime = 0.66511 s  ClockTime = 1 s

Courant Number mean: 0.0519215 max: 0.3544
Time = 0.645s

smoothSolver:  Solving for Ux, Initial residual = 0.00231238, Final residual = 2.3246e-06, No Iterations 3
smoothSolver:  Solving for Uy, Initial residual = 0.00233241, Final residual = 2.52541e-06, No Iterations 3
GAMG:  Solving for p, Initial residual = 0.00405976, Final residual = 0.000182779, No Iterations 3
time step continuity errors : sum local = 7.76838e-08, global = -1.09764e-19
GAMG:  Solving for p, Initial residual = 0.000340075, Final residual = 9.3111e-07, No Iterations 6
time step continuity errors : sum local = 4.20238e-10, global = -1.69838e-19, cumulative = -2.83901e-19
smoothSolver:  Solving for epsilon, Initial residual = 0.000884005, Final residual = 5.44563e-06, No Iterations 2
smoothSolver:  Solving for k, Initial residual = 0.0027265, Final residual = 2.73779e-06, No Iterations 3
ExecutionTime = 0.67093 s  ClockTime = 1 s

Courant Number mean: 0.0520596 max: 0.354447
Time = 0.6475s

smoothSolver:  Solving for Ux, Initial residual = 0.00230801, Final residual = 2.31998e-06, No Iterations 3
smoothSolver:  Solving for Uy, Initial residual = 0.00232072, Final residual = 2.50938e-06, No Iterations 3
GAMG:  Solving for p, Initial residual = 0.00414086, Final residual = 0.000182445, No Iterations 3
time step continuity errors : sum local = 7.75904e-08, global = 5.20762e-20
GAMG:  Solving for p, Initial residual = 0.000340712, Final residual = 9.2191e-07, No Iterations 6
time step continuity errors : sum local = 4.16397e-10, global = 8.58975e-21, cumulative = -2.75311e-19
smoothSolver:  Solving for epsilon, Initial residual = 0.000879602, Final residual = 5.4022e-06, No Iterations 2
smoothSolver:  Solving for k, Initial residual = 0.00270862, Final residual = 2.71663e-06, No Iterations 3
ExecutionTime = 0.676711 s  ClockTime = 1 s

Courant Number mean: 0.0521967 max: 0.354494
Time = 0.65s

smoothSolver:  Solving for Ux, Initial residual = 0.00230367, Final residual = 2.31565e-06, No Iterations 3
smoothSolver:  Solving for Uy, Initial residual = 0.0023096, Final residual = 2.49337e-06, No Iterations 3
GAMG:  Solving for p, Initial residual = 0.00441128, Final residual = 0.00040871, No Iterations 2
time step continuity errors : sum local = 1.72832e-07, global = -1.62112e-19
GAMG:  Solving for p, Initial residual = 0.000394092, Final residual = 8.16599e-07, No Iterations 7
time step continuity errors : sum local = 3.70284e-10, global = -1.93198e-20, cumulative = -2.94631e-19
smoothSolver:  Solving for epsilon, Initial residual = 0.000875403, Final residual = 5.35932e-06, No Iterations 2
smoothSolver:  Solving for k, Initial residual = 0.00269102, Final residual = 2.69897e-06, No Iterations 3
ExecutionTime = 0.682281 s  ClockTime = 1 s

Courant Number mean: 0.0523342 max: 0.35454
Time = 0.6525s

smoothSolver:  Solving for Ux, Initial residual = 0.00230042, Final residual = 2.30987e-06, No Iterations 3
smoothSolver:  Solving for Uy, Initial residual = 0.00229764, Final residual = 2.47637e-06, No Iterations 3
GAMG:  Solving for p, Initial residual = 0.00454254, Final residual = 0.000420702, No Iterations 2
time step continuity errors : sum local = 1.77889e-07, global = 1.57009e-19
GAMG:  Solving for p, Initial residual = 0.000407655, Final residual = 4.6389e-07, No Iterations 8
time step continuity errors : sum local = 2.10334e-10, global = 2.53156e-20, cumulative = -2.69316e-19
smoothSolver:  Solving for epsilon, Initial residual = 0.000871229, Final residual = 5.31871e-06, No Iterations 2
smoothSolver:  Solving for k, Initial residual = 0.00267329, Final residual = 2.67712e-06, No Iterations 3
ExecutionTime = 0.688089 s  ClockTime = 1 s

Courant Number mean: 0.0524715 max: 0.354586
Time = 0.655s

smoothSolver:  Solving for Ux, Initial residual = 0.00229809, Final residual = 2.30643e-06, No Iterations 3
smoothSolver:  Solving for Uy, Initial residual = 0.00228771, Final residual = 2.45928e-06, No Iterations 3
GAMG:  Solving for p, Initial residual = 0.00406601, Final residual = 0.00018132, No Iterations 3
time step continuity errors : sum local = 7.71454e-08, global = -4.48926e-20
GAMG:  Solving for p, Initial residual = 0.000338869, Final residual = 9.39063e-07, No Iterations 6
time step continuity errors : sum local = 4.24067e-10, global = -2.5723e-19, cumulative = -5.26546e-19
smoothSolver:  Solving for epsilon, Initial residual = 0.000867037, Final residual = 5.27787e-06, No Iterations 2
smoothSolver:  Solving for k, Initial residual = 0.00265581, Final residual = 2.65323e-06, No Iterations 3
ExecutionTime = 0.693769 s  ClockTime = 1 s

Courant Number mean: 0.0526086 max: 0.354632
Time = 0.6575s

smoothSolver:  Solving for Ux, Initial residual = 0.0022961, Final residual = 2.30173e-06, No Iterations 3
smoothSolver:  Solving for Uy, Initial residual = 0.00227678, Final residual = 2.44137e-06, No Iterations 3
GAMG:  Solving for p, Initial residual = 0.00397971, Final residual = 0.000179963, No Iterations 3
time step continuity errors : sum local = 7.66669e-08, global = -2.87962e-21
GAMG:  Solving for p, Initial residual = 0.000337053, Final residual = 8.75594e-07, No Iterations 6
time step continuity errors : sum local = 3.96475e-10, global = 1.5558e-19, cumulative = -3.70966e-19
smoothSolver:  Solving for epsilon, Initial residual = 0.000862841, Final residual = 5.28721e-06, No Iterations 2
smoothSolver:  Solving for k, Initial residual = 0.00263901, Final residual = 2.63681e-06, No Iterations 3
ExecutionTime = 0.699284 s  ClockTime = 1 s

Courant Number mean: 0.0527461 max: 0.354677
Time = 0.66s

smoothSolver:  Solving for Ux, Initial residual = 0.0022945, Final residual = 2.29809e-06, No Iterations 3
smoothSolver:  Solving for Uy, Initial residual = 0.00226548, Final residual = 2.42688e-06, No Iterations 3
GAMG:  Solving for p, Initial residual = 0.0042143, Final residual = 0.000414225, No Iterations 2
time step continuity errors : sum local = 1.75288e-07, global = 5.08354e-20
GAMG:  Solving for p, Initial residual = 0.000396441, Final residual = 8.71533e-07, No Iterations 7
time step continuity errors : sum local = 3.95403e-10, global = 9.5697e-20, cumulative = -2.75269e-19
smoothSolver:  Solving for epsilon, Initial residual = 0.000858561, Final residual = 5.24327e-06, No Iterations 2
smoothSolver:  Solving for k, Initial residual = 0.00262412, Final residual = 2.62071e-06, No Iterations 3
ExecutionTime = 0.704778 s  ClockTime = 1 s

Courant Number mean: 0.0528826 max: 0.354722
Time = 0.6625s

smoothSolver:  Solving for Ux, Initial residual = 0.00229374, Final residual = 2.29552e-06, No Iterations 3
smoothSolver:  Solving for Uy, Initial residual = 0.00225523, Final residual = 2.41385e-06, No Iterations 3
GAMG:  Solving for p, Initial residual = 0.0038734, Final residual = 0.000176058, No Iterations 3
time step continuity errors : sum local = 7.50068e-08, global = 1.04483e-19
GAMG:  Solving for p, Initial residual = 0.000336819, Final residual = 8.86592e-07, No Iterations 6
time step continuity errors : sum local = 4.02028e-10, global = 1.26274e-19, cumulative = -1.48994e-19
smoothSolver:  Solving for epsilon, Initial residual = 0.000854275, Final residual = 5.20132e-06, No Iterations 2
smoothSolver:  Solving for k, Initial residual = 0.00260918, Final residual = 2.60443e-06, No Iterations 3
ExecutionTime = 0.710602 s  ClockTime = 1 s

Courant Number mean: 0.0530183 max: 0.354766
Time = 0.665s

smoothSolver:  Solving for Ux, Initial residual = 0.0022927, Final residual = 2.28863e-06, No Iterations 3
smoothSolver:  Solving for Uy, Initial residual = 0.00224457, Final residual = 2.39234e-06, No Iterations 3
GAMG:  Solving for p, Initial residual = 0.00383765, Final residual = 0.00017616, No Iterations 3
time step continuity errors : sum local = 7.5154e-08, global = -9.77624e-21
GAMG:  Solving for p, Initial residual = 0.000335013, Final residual = 8.39418e-07, No Iterations 6
time step continuity errors : sum local = 3.8167e-10, global = -8.48758e-20, cumulative = -2.3387e-19
smoothSolver:  Solving for epsilon, Initial residual = 0.000849902, Final residual = 5.16095e-06, No Iterations 2
smoothSolver:  Solving for k, Initial residual = 0.00259421, Final residual = 2.57152e-06, No Iterations 3
ExecutionTime = 0.716212 s  ClockTime = 1 s

Courant Number mean: 0.0531529 max: 0.354811
Time = 0.6675s

smoothSolver:  Solving for Ux, Initial residual = 0.00229111, Final residual = 2.28361e-06, No Iterations 3
smoothSolver:  Solving for Uy, Initial residual = 0.00223369, Final residual = 2.37842e-06, No Iterations 3
GAMG:  Solving for p, Initial residual = 0.00388207, Final residual = 0.000176603, No Iterations 3
time step continuity errors : sum local = 7.53847e-08, global = -1.0226e-19
GAMG:  Solving for p, Initial residual = 0.000336244, Final residual = 8.45386e-07, No Iterations 6
time step continuity errors : sum local = 3.84319e-10, global = -2.63186e-20, cumulative = -2.60189e-19
smoothSolver:  Solving for epsilon, Initial residual = 0.000845709, Final residual = 5.11202e-06, No Iterations 2
smoothSolver:  Solving for k, Initial residual = 0.00257795, Final residual = 2.54822e-06, No Iterations 3
ExecutionTime = 0.721616 s  ClockTime = 1 s

Courant Number mean: 0.0532876 max: 0.354855
Time = 0.67s

smoothSolver:  Solving for Ux, Initial residual = 0.00228926, Final residual = 2.27841e-06, No Iterations 3
smoothSolver:  Solving for Uy, Initial residual = 0.00222293, Final residual = 2.36328e-06, No Iterations 3
GAMG:  Solving for p, Initial residual = 0.00399938, Final residual = 0.000176322, No Iterations 3
time step continuity errors : sum local = 7.5287e-08, global = 3.71249e-20
GAMG:  Solving for p, Initial residual = 0.000339602, Final residual = 8.6376e-07, No Iterations 6
time step continuity errors : sum local = 3.93232e-10, global = 6.19132e-20, cumulative = -1.98276e-19
smoothSolver:  Solving for epsilon, Initial residual = 0.000841644, Final residual = 5.06576e-06, No Iterations 2
smoothSolver:  Solving for k, Initial residual = 0.00256247, Final residual = 2.55538e-06, No Iterations 3
ExecutionTime = 0.727321 s  ClockTime = 1 s

Courant Number mean: 0.0534219 max: 0.354898
Time = 0.6725s

smoothSolver:  Solving for Ux, Initial residual = 0.00228683, Final residual = 2.27458e-06, No Iterations 3
smoothSolver:  Solving for Uy, Initial residual = 0.00221269, Final residual = 2.35075e-06, No Iterations 3
GAMG:  Solving for p, Initial residual = 0.00405551, Final residual = 0.000175862, No Iterations 3
time step continuity errors : sum local = 7.51632e-08, global = -1.05672e-20
GAMG:  Solving for p, Initial residual = 0.000339803, Final residual = 8.471e-07, No Iterations 6
time step continuity errors : sum local = 3.85484e-10, global = -2.43409e-19, cumulative = -4.41685e-19
smoothSolver:  Solving for epsilon, Initial residual = 0.00083757, Final residual = 5.03081e-06, No Iterations 2
smoothSolver:  Solving for k, Initial residual = 0.00254736, Final residual = 2.53908e-06, No Iterations 3
ExecutionTime = 0.732891 s  ClockTime = 1 s

Courant Number mean: 0.0535556 max: 0.354941
Time = 0.675s

smoothSolver:  Solving for Ux, Initial residual = 0.00228434, Final residual = 2.27012e-06, No Iterations 3
smoothSolver:  Solving for Uy, Initial residual = 0.00220267, Final residual = 2.33803e-06, No Iterations 3
GAMG:  Solving for p, Initial residual = 0.00397593, Final residual = 0.000175645, No Iterations 3
time step continuity errors : sum local = 7.50934e-08, global = 1.90691e-20
GAMG:  Solving for p, Initial residual = 0.000335758, Final residual = 8.43846e-07, No Iterations 6
time step continuity errors : sum local = 3.84288e-10, global = 4.25552e-20, cumulative = -3.99129e-19
smoothSolver:  Solving for epsilon, Initial residual = 0.000833755, Final residual = 4.99725e-06, No Iterations 2
smoothSolver:  Solving for k, Initial residual = 0.00253193, Final residual = 2.51967e-06, No Iterations 3
ExecutionTime = 0.738499 s  ClockTime = 1 s

Courant Number mean: 0.0536886 max: 0.354984
Time = 0.6775s

smoothSolver:  Solving for Ux, Initial residual = 0.00228161, Final residual = 2.26599e-06, No Iterations 3
smoothSolver:  Solving for Uy, Initial residual = 0.00219268, Final residual = 2.3257e-06, No Iterations 3
GAMG:  Solving for p, Initial residual = 0.00397246, Final residual = 0.000174999, No Iterations 3
time step continuity errors : sum local = 7.48595e-08, global = 1.86271e-20
GAMG:  Solving for p, Initial residual = 0.000333442, Final residual = 8.33837e-07, No Iterations 6
time step continuity errors : sum local = 3.80139e-10, global = -1.64445e-19, cumulative = -5.63575e-19
smoothSolver:  Solving for epsilon, Initial residual = 0.000829974, Final residual = 4.96339e-06, No Iterations 2
smoothSolver:  Solving for k, Initial residual = 0.00251609, Final residual = 2.48285e-06, No Iterations 3
ExecutionTime = 0.745076 s  ClockTime = 1 s

Courant Number mean: 0.0538213 max: 0.355027
Time = 0.68s

smoothSolver:  Solving for Ux, Initial residual = 0.00227916, Final residual = 2.26138e-06, No Iterations 3
smoothSolver:  Solving for Uy, Initial residual = 0.0021826, Final residual = 2.31362e-06, No Iterations 3
GAMG:  Solving for p, Initial residual = 0.00409658, Final residual = 0.000402288, No Iterations 2
time step continuity errors : sum local = 1.70957e-07, global = 2.37783e-19
GAMG:  Solving for p, Initial residual = 0.000367246, Final residual = 8.12335e-07, No Iterations 7
time step continuity errors : sum local = 3.71262e-10, global = 6.64607e-20, cumulative = -4.97114e-19
smoothSolver:  Solving for epsilon, Initial residual = 0.000826052, Final residual = 4.93503e-06, No Iterations 2
smoothSolver:  Solving for k, Initial residual = 0.00249967, Final residual = 2.46802e-06, No Iterations 3
ExecutionTime = 0.750879 s  ClockTime = 1 s

Courant Number mean: 0.0539541 max: 0.35507
Time = 0.6825s

smoothSolver:  Solving for Ux, Initial residual = 0.0022765, Final residual = 2.25545e-06, No Iterations 3
smoothSolver:  Solving for Uy, Initial residual = 0.00217205, Final residual = 2.30081e-06, No Iterations 3
GAMG:  Solving for p, Initial residual = 0.00415203, Final residual = 0.000398854, No Iterations 2
time step continuity errors : sum local = 1.6955e-07, global = -2.42374e-19
GAMG:  Solving for p, Initial residual = 0.000377118, Final residual = 8.92512e-07, No Iterations 7
time step continuity errors : sum local = 4.07908e-10, global = 3.25618e-20, cumulative = -4.64552e-19
smoothSolver:  Solving for epsilon, Initial residual = 0.000822123, Final residual = 4.90157e-06, No Iterations 2
smoothSolver:  Solving for k, Initial residual = 0.00248322, Final residual = 2.44879e-06, No Iterations 3
ExecutionTime = 0.756499 s  ClockTime = 1 s

Courant Number mean: 0.0540869 max: 0.355113
Time = 0.685s

smoothSolver:  Solving for Ux, Initial residual = 0.00227213, Final residual = 2.25124e-06, No Iterations 3
smoothSolver:  Solving for Uy, Initial residual = 0.00216332, Final residual = 2.28946e-06, No Iterations 3
GAMG:  Solving for p, Initial residual = 0.00440012, Final residual = 0.000404349, No Iterations 2
time step continuity errors : sum local = 1.71945e-07, global = -1.16146e-19
GAMG:  Solving for p, Initial residual = 0.000387045, Final residual = 7.91229e-07, No Iterations 7
time step continuity errors : sum local = 3.62603e-10, global = -3.04842e-20, cumulative = -4.95036e-19
smoothSolver:  Solving for epsilon, Initial residual = 0.00081823, Final residual = 4.871e-06, No Iterations 2
smoothSolver:  Solving for k, Initial residual = 0.0024671, Final residual = 2.43442e-06, No Iterations 3
ExecutionTime = 0.762392 s  ClockTime = 1 s

Courant Number mean: 0.054219 max: 0.355154
Time = 0.6875s

smoothSolver:  Solving for Ux, Initial residual = 0.00226707, Final residual = 2.2468e-06, No Iterations 3
smoothSolver:  Solving for Uy, Initial residual = 0.00215473, Final residual = 2.27805e-06, No Iterations 3
GAMG:  Solving for p, Initial residual = 0.00394185, Final residual = 0.000391947, No Iterations 2
time step continuity errors : sum local = 1.66808e-07, global = 1.11623e-19
GAMG:  Solving for p, Initial residual = 0.000363142, Final residual = 7.78965e-07, No Iterations 7
time step continuity errors : sum local = 3.57083e-10, global = 4.04982e-20, cumulative = -4.54538e-19
smoothSolver:  Solving for epsilon, Initial residual = 0.000814369, Final residual = 4.83824e-06, No Iterations 2
smoothSolver:  Solving for k, Initial residual = 0.00245122, Final residual = 2.4173e-06, No Iterations 3
ExecutionTime = 0.768006 s  ClockTime = 1 s

Courant Number mean: 0.0543507 max: 0.355196
Time = 0.69s

smoothSolver:  Solving for Ux, Initial residual = 0.0022629, Final residual = 2.24112e-06, No Iterations 3
smoothSolver:  Solving for Uy, Initial residual = 0.0021447, Final residual = 2.26489e-06, No Iterations 3
GAMG:  Solving for p, Initial residual = 0.004114, Final residual = 0.00038923, No Iterations 2
time step continuity errors : sum local = 1.65735e-07, global = 1.2112e-19
GAMG:  Solving for p, Initial residual = 0.000366236, Final residual = 7.40565e-07, No Iterations 7
time step continuity errors : sum local = 3.39814e-10, global = 3.00564e-20, cumulative = -4.24482e-19
smoothSolver:  Solving for epsilon, Initial residual = 0.000810593, Final residual = 4.82724e-06, No Iterations 2
smoothSolver:  Solving for k, Initial residual = 0.00243735, Final residual = 2.39551e-06, No Iterations 3
ExecutionTime = 0.773674 s  ClockTime = 1 s

Courant Number mean: 0.0544824 max: 0.355238
Time = 0.6925s

smoothSolver:  Solving for Ux, Initial residual = 0.00225865, Final residual = 2.2351e-06, No Iterations 3
smoothSolver:  Solving for Uy, Initial residual = 0.00213489, Final residual = 2.25132e-06, No Iterations 3
GAMG:  Solving for p, Initial residual = 0.00403485, Final residual = 0.000387375, No Iterations 2
time step continuity errors : sum local = 1.65023e-07, global = -1.85495e-20
GAMG:  Solving for p, Initial residual = 0.000356133, Final residual = 7.16486e-07, No Iterations 7
time step continuity errors : sum local = 3.29074e-10, global = 6.55644e-20, cumulative = -3.58917e-19
smoothSolver:  Solving for epsilon, Initial residual = 0.000806909, Final residual = 4.85453e-06, No Iterations 2
smoothSolver:  Solving for k, Initial residual = 0.00242394, Final residual = 2.3839e-06, No Iterations 3
ExecutionTime = 0.779377 s  ClockTime = 1 s

Courant Number mean: 0.0546145 max: 0.355279
Time = 0.695s

smoothSolver:  Solving for Ux, Initial residual = 0.00225535, Final residual = 2.23146e-06, No Iterations 3
smoothSolver:  Solving for Uy, Initial residual = 0.00212479, Final residual = 2.23835e-06, No Iterations 3
GAMG:  Solving for p, Initial residual = 0.00449098, Final residual = 0.000403144, No Iterations 2
time step continuity errors : sum local = 1.71763e-07, global = -2.32076e-20
GAMG:  Solving for p, Initial residual = 0.000381022, Final residual = 9.74549e-07, No Iterations 7
time step continuity errors : sum local = 4.46562e-10, global = -4.00963e-20, cumulative = -3.99014e-19
smoothSolver:  Solving for epsilon, Initial residual = 0.000803247, Final residual = 4.83144e-06, No Iterations 2
smoothSolver:  Solving for k, Initial residual = 0.00240942, Final residual = 2.34146e-06, No Iterations 3
ExecutionTime = 0.785045 s  ClockTime = 1 s

Courant Number mean: 0.054746 max: 0.35532
Time = 0.6975s

smoothSolver:  Solving for Ux, Initial residual = 0.00225213, Final residual = 2.2284e-06, No Iterations 3
smoothSolver:  Solving for Uy, Initial residual = 0.00211681, Final residual = 2.22664e-06, No Iterations 3
GAMG:  Solving for p, Initial residual = 0.00393421, Final residual = 0.000386031, No Iterations 2
time step continuity errors : sum local = 1.64607e-07, global = 5.55865e-20
GAMG:  Solving for p, Initial residual = 0.000356447, Final residual = 7.56522e-07, No Iterations 7
time step continuity errors : sum local = 3.47933e-10, global = -1.00814e-19, cumulative = -4.99828e-19
smoothSolver:  Solving for epsilon, Initial residual = 0.000799627, Final residual = 4.79196e-06, No Iterations 2
smoothSolver:  Solving for k, Initial residual = 0.00239404, Final residual = 2.32223e-06, No Iterations 3
ExecutionTime = 0.790736 s  ClockTime = 1 s

Courant Number mean: 0.054877 max: 0.355361
Time = 0.7s

smoothSolver:  Solving for Ux, Initial residual = 0.00224983, Final residual = 2.2214e-06, No Iterations 3
smoothSolver:  Solving for Uy, Initial residual = 0.00210744, Final residual = 2.21416e-06, No Iterations 3
GAMG:  Solving for p, Initial residual = 0.00382128, Final residual = 0.000169686, No Iterations 3
time step continuity errors : sum local = 7.29545e-08, global = -1.74995e-19
GAMG:  Solving for p, Initial residual = 0.000330405, Final residual = 7.4742e-07, No Iterations 6
time step continuity errors : sum local = 3.43479e-10, global = 1.43852e-19, cumulative = -3.55976e-19
smoothSolver:  Solving for epsilon, Initial residual = 0.000795987, Final residual = 4.75758e-06, No Iterations 2
smoothSolver:  Solving for k, Initial residual = 0.00237951, Final residual = 2.30352e-06, No Iterations 3
ExecutionTime = 0.804227 s  ClockTime = 1 s

End

